2349
  -OEChem-08311813223D

 41 43  0     1  0  0  0  0  0999 V2000
   -2.8811    2.1650   -0.2374 S   0  0  0  0  0  0  0  0  0  0  0  0
   -0.8143   -1.5648   -1.3461 O   0  0  0  0  0  0  0  0  0  0  0  0
   -5.4347   -1.8330   -0.2275 O   0  0  0  0  0  0  0  0  0  0  0  0
   -3.6537   -2.2957    1.1180 O   0  0  0  0  0  0  0  0  0  0  0  0
    2.1575    1.8917   -0.7507 O   0  0  0  0  0  0  0  0  0  0  0  0
   -2.2097   -0.3186    0.0928 N   0  0  0  0  0  0  0  0  0  0  0  0
    0.8125    0.5392    0.5711 N   0  0  0  0  0  0  0  0  0  0  0  0
   -1.7196    0.9869    0.5449 C   0  0  1  0  0  0  0  0  0  0  0  0
   -4.2663    0.9234   -0.1404 C   0  0  0  0  0  0  0  0  0  0  0  0
   -3.5654   -0.4261   -0.4070 C   0  0  2  0  0  0  0  0  0  0  0  0
   -0.4198    0.6897   -0.2153 C   0  0  2  0  0  0  0  0  0  0  0  0
   -1.0846   -0.6448   -0.6078 C   0  0  0  0  0  0  0  0  0  0  0  0
   -4.9112    1.0430    1.2471 C   0  0  0  0  0  0  0  0  0  0  0  0
   -5.2959    1.2412   -1.2262 C   0  0  0  0  0  0  0  0  0  0  0  0
   -4.1882   -1.6123    0.2574 C   0  0  0  0  0  0  0  0  0  0  0  0
    2.0133    1.1641    0.2284 C   0  0  0  0  0  0  0  0  0  0  0  0
    3.1248    0.8430    1.2085 C   0  0  0  0  0  0  0  0  0  0  0  0
    4.3052    0.1612    0.5688 C   0  0  0  0  0  0  0  0  0  0  0  0
    4.3374   -1.2245    0.4973 C   0  0  0  0  0  0  0  0  0  0  0  0
    5.3442    0.9279    0.0604 C   0  0  0  0  0  0  0  0  0  0  0  0
    5.4309   -1.8563   -0.0950 C   0  0  0  0  0  0  0  0  0  0  0  0
    6.4377    0.2960   -0.5318 C   0  0  0  0  0  0  0  0  0  0  0  0
    6.4810   -1.0961   -0.6095 C   0  0  0  0  0  0  0  0  0  0  0  0
   -1.6462    1.0503    1.6348 H   0  0  0  0  0  0  0  0  0  0  0  0
   -3.4975   -0.6421   -1.4818 H   0  0  0  0  0  0  0  0  0  0  0  0
   -0.2612    1.3231   -1.0978 H   0  0  0  0  0  0  0  0  0  0  0  0
   -4.2142    0.7852    2.0523 H   0  0  0  0  0  0  0  0  0  0  0  0
   -5.2758    2.0605    1.4326 H   0  0  0  0  0  0  0  0  0  0  0  0
   -5.7771    0.3782    1.3407 H   0  0  0  0  0  0  0  0  0  0  0  0
   -5.7266    2.2404   -1.0912 H   0  0  0  0  0  0  0  0  0  0  0  0
   -4.8561    1.2000   -2.2295 H   0  0  0  0  0  0  0  0  0  0  0  0
   -6.1264    0.5277   -1.2049 H   0  0  0  0  0  0  0  0  0  0  0  0
    0.7954   -0.0471    1.4022 H   0  0  0  0  0  0  0  0  0  0  0  0
   -5.8612   -2.6075    0.1971 H   0  0  0  0  0  0  0  0  0  0  0  0
    2.7584    0.2310    2.0417 H   0  0  0  0  0  0  0  0  0  0  0  0
    3.4389    1.7902    1.6657 H   0  0  0  0  0  0  0  0  0  0  0  0
    3.5233   -1.8251    0.8933 H   0  0  0  0  0  0  0  0  0  0  0  0
    5.3196    2.0126    0.1143 H   0  0  0  0  0  0  0  0  0  0  0  0
    5.4644   -2.9401   -0.1562 H   0  0  0  0  0  0  0  0  0  0  0  0
    7.2553    0.8878   -0.9329 H   0  0  0  0  0  0  0  0  0  0  0  0
    7.3323   -1.5879   -1.0709 H   0  0  0  0  0  0  0  0  0  0  0  0
  1  8  1  0  0  0  0
  1  9  1  0  0  0  0
  2 12  2  0  0  0  0
  3 15  1  0  0  0  0
  3 34  1  0  0  0  0
  4 15  2  0  0  0  0
  5 16  2  0  0  0  0
  6  8  1  0  0  0  0
  6 10  1  0  0  0  0
  6 12  1  0  0  0  0
  7 11  1  0  0  0  0
  7 16  1  0  0  0  0
  7 33  1  0  0  0  0
  8 11  1  0  0  0  0
  8 24  1  0  0  0  0
  9 10  1  0  0  0  0
  9 13  1  0  0  0  0
  9 14  1  0  0  0  0
 10 15  1  0  0  0  0
 10 25  1  0  0  0  0
 11 12  1  0  0  0  0
 11 26  1  0  0  0  0
 13 27  1  0  0  0  0
 13 28  1  0  0  0  0
 13 29  1  0  0  0  0
 14 30  1  0  0  0  0
 14 31  1  0  0  0  0
 14 32  1  0  0  0  0
 16 17  1  0  0  0  0
 17 18  1  0  0  0  0
 17 35  1  0  0  0  0
 17 36  1  0  0  0  0
 18 19  2  0  0  0  0
 18 20  1  0  0  0  0
 19 21  1  0  0  0  0
 19 37  1  0  0  0  0
 20 22  2  0  0  0  0
 20 38  1  0  0  0  0
 21 23  2  0  0  0  0
 21 39  1  0  0  0  0
 22 23  1  0  0  0  0
 22 40  1  0  0  0  0
 23 41  1  0  0  0  0
M  END
> <PUBCHEM_COMPOUND_CID>
2349

> <PUBCHEM_CONFORMER_RMSD>
0.8

> <PUBCHEM_CONFORMER_DIVERSEORDER>
16
94
26
64
21
32
127
20
76
56
119
51
107
126
53
101
79
113
36
33
48
103
105
37
3
74
13
97
9
71
85
19
66
104
114
46
109
52
116
54
93
14
63
86
15
112
89
38
84
43
83
77
5
117
39
90
120
50
125
22
47
124
81
10
42
65
70
4
58
31
87
96
100
41
98
23
80
110
102
17
62
49
29
82
27
88
72
6
61
2
92
111
78
122
28
34
18
60
91
69
67
108
25
75
121
35
99
68
1
123
30
7
118
59
95
24
106
45
12
40
57
115
8
44
11
73
55

> <PUBCHEM_MMFF94_PARTIAL_CHARGES>
28
1 -0.45
10 0.36
11 0.28
12 0.58
15 0.66
16 0.57
17 0.2
18 -0.14
19 -0.15
2 -0.57
20 -0.15
21 -0.15
22 -0.15
23 -0.15
3 -0.65
33 0.37
34 0.5
37 0.15
38 0.15
39 0.15
4 -0.57
40 0.15
41 0.15
5 -0.57
6 -0.59
7 -0.65
8 0.44
9 0.23

> <PUBCHEM_EFFECTIVE_ROTOR_COUNT>
5.8

> <PUBCHEM_PHARMACOPHORE_FEATURES>
10
1 2 acceptor
1 3 acceptor
1 4 acceptor
1 5 acceptor
1 7 donor
3 3 4 15 anion
3 9 13 14 hydrophobe
4 6 8 11 12 rings
6 18 19 20 21 22 23 rings
7 1 6 8 9 10 11 12 rings

> <PUBCHEM_HEAVY_ATOM_COUNT>
23

> <PUBCHEM_ATOM_DEF_STEREO_COUNT>
0

> <PUBCHEM_ATOM_UDEF_STEREO_COUNT>
3

> <PUBCHEM_BOND_DEF_STEREO_COUNT>
0

> <PUBCHEM_BOND_UDEF_STEREO_COUNT>
0

> <PUBCHEM_ISOTOPIC_ATOM_COUNT>
0

> <PUBCHEM_COMPONENT_COUNT>
1

> <PUBCHEM_CACTVS_TAUTO_COUNT>
2

> <PUBCHEM_CONFORMER_ID>
0000092D00000010

> <PUBCHEM_MMFF94_ENERGY>
61.9192

> <PUBCHEM_FEATURE_SELFOVERLAP>
54.535

> <PUBCHEM_SHAPE_FINGERPRINT>
10595046 47 18334579049329646812
11315181 36 18131631201295461385
11524674 6 16845573127947489583
11545043 162 18201717379236825897
11578080 2 17025421194190847903
11796584 16 18130791148815882606
12107183 9 17688305690651449544
12166972 35 17846776342704588265
12236239 1 18410857668316631208
12516196 113 18342737421286468792
13167823 11 18411979170092339416
13288520 33 18409447016562688341
13675066 3 18270954738982161504
13914758 101 16343704284075904129
14251731 8 18408322172458275220
14251758 9 18271802410765079344
14251764 18 18343588443111865233
14341114 176 18335424551637063768
14420673 8 18268714909527634302
14461889 52 18339635759435484064
15183329 4 18411417272395323672
15196674 1 18411980252498041962
15537594 2 17603866676318883506
15788980 27 17275382114280366668
17349148 13 16056881351252935176
17834072 33 18113902675930500748
17844677 252 18411705417309032720
1813 80 17676202477343762996
18927931 339 18131071537176475541
21033648 29 17631716219266207640
21150785 3 13840264823351468827
21267235 1 18261959639262177507
21682296 61 17988931020075570638
220451 1 18334300842464008192
2215653 11 18342730797971800412
22950370 63 18334859398913980688
2297311 6 18410576197281479521
23402539 116 16343698816034202361
23522609 53 18124908782898352280
23559900 14 18410284843758961345
3004659 81 18410293567844588162
335352 9 18409727344910199629
34797466 226 12901839268184702242
351380 180 9151172056920932982
3545911 37 18409445865247903809
4073 2 18187088377641247890
4214541 1 18410009927117943328
465052 167 17918277541815887020
5104073 3 18343578543059332968
559249 180 18410570669584645039
59755656 215 18338794503220531653
59755656 520 18339079290461436113

> <PUBCHEM_SHAPE_MULTIPOLES>
443.74
16.65
2.14
1.05
14.56
0.57
-0.03
3.23
1.16
-1.45
0.01
-0.47
-0.03
0.54

> <PUBCHEM_SHAPE_SELFOVERLAP>
930.448

> <PUBCHEM_SHAPE_VOLUME>
252.7

> <PUBCHEM_COORDINATE_TYPE>
2
5
10

$$$$
